string
__Jmol-14_07052216083D 1   1.00000     0.00000     0
Jmol version 14.31.32  2021-02-06 23:16 EXTRACT: ({0:5 7:10 14:17})
 14 13  0  0  0  0            999 V2000
    0.0456    0.0016    0.0086 C   0  0  1  0  0  0
    0.0957    0.0872   -1.5106 C   0  0  1  0  0  0
    1.0001   -0.3761    0.3818 H   0  0  0  0  0  0
   -0.2279    1.3591    0.6404 C   0  0  0  0  0  0
   -0.7256   -0.7118    0.3095 H   0  0  0  0  0  0
    0.5282   -0.8242   -1.9288 H   0  0  0  0  0  0
   -0.9131    0.2003   -1.9256 H   0  0  0  0  0  0
    0.5749    2.0652    0.4154 H   0  0  0  0  0  0
   -0.3013    1.2651    1.7250 H   0  0  0  0  0  0
   -1.1696    1.7836    0.2716 H   0  0  0  0  0  0
    0.9217    1.2514   -1.9714 C   0  0  0  0  0  0
    0.4675    2.1874   -1.6143 H   0  0  0  0  0  0
    0.9626    1.2597   -3.0706 H   0  0  0  0  0  0
    1.9407    1.1608   -1.5672 H   0  0  0  0  0  0
  1  5  1  0  0  0
  1  2  1  0  0  0
  3  1  1  0  0  0
  4  1  1  0  0  0
  6  2  1  0  0  0
  7  2  1  0  0  0
  8  4  1  0  0  0
  9  4  1  0  0  0
 10  4  1  0  0  0
 11  2  1  0  0  0
 12 11  1  0  0  0
 13 11  1  0  0  0
 14 11  1  0  0  0
M  END
