string
__Jmol-14_06222212413D 1   1.00000     0.00000     0
Jmol version 14.31.32  2021-02-06 23:16 EXTRACT: ({0:13})
 14 13  0  0  0  0            999 V2000
    0.0004   -0.0187    0.0166 C   0  0  1  0  0  0
   -0.0122   -0.1636   -1.5045 C   0  0  2  0  0  0
    0.8742    0.5621    0.3294 H   0  0  0  0  0  0
   -0.8855    0.5332    0.3468 H   0  0  0  0  0  0
    0.0295   -1.3742    0.7005 C   0  0  0  0  0  0
   -0.0412    1.1915   -2.1889 C   0  0  0  0  0  0
   -0.8859   -0.7444   -1.8171 H   0  0  0  0  0  0
    0.8737   -0.7156   -1.8345 H   0  0  0  0  0  0
   -0.0499    1.0690   -3.2764 H   0  0  0  0  0  0
    0.8383    1.7850   -1.9223 H   0  0  0  0  0  0
   -0.9341    1.7560   -1.9047 H   0  0  0  0  0  0
   -0.8499   -1.9675    0.4334 H   0  0  0  0  0  0
    0.0382   -1.2523    1.7880 H   0  0  0  0  0  0
    0.9224   -1.9385    0.4158 H   0  0  0  0  0  0
  1  5  1  0  0  0
  1  2  1  0  0  0
  3  1  1  0  0  0
  4  1  1  0  0  0
  6  2  1  0  0  0
  7  2  1  0  0  0
  8  2  1  0  0  0
  9  6  1  0  0  0
 10  6  1  0  0  0
 11  6  1  0  0  0
 12  5  1  0  0  0
 13  5  1  0  0  0
 14  5  1  0  0  0
M  END
