string
__Jmol-14_07052215553D 1   1.00000     0.00000     0
Jmol version 14.31.32  2021-02-06 23:16 EXTRACT: ({0:13})
 14 13  0  0  0  0            999 V2000
    0.0000    0.0000   -0.0000 C   0  0  1  0  0  0
    0.5680    0.0864   -1.3856 C   0  0  2  0  0  0
    0.6547   -0.6104    0.6241 H   0  0  0  0  0  0
   -0.1055    1.3776    0.5840 C   0  0  0  0  0  0
   -0.9911   -0.4546   -0.0409 H   0  0  0  0  0  0
    1.5057   -0.4866   -1.4340 H   0  0  0  0  0  0
    0.8412    1.5217   -1.7255 C   0  0  0  0  0  0
   -0.1534   -0.3296   -2.1043 H   0  0  0  0  0  0
    0.8936    1.8360    0.6252 H   0  0  0  0  0  0
   -0.5221    1.3143    1.6001 H   0  0  0  0  0  0
   -0.7655    1.9930   -0.0451 H   0  0  0  0  0  0
   -0.0965    2.0948   -1.6773 H   0  0  0  0  0  0
    1.2578    1.5850   -2.7416 H   0  0  0  0  0  0
    1.5626    1.9378   -1.0068 H   0  0  0  0  0  0
  1  5  1  0  0  0
  1  2  1  0  0  0
  3  1  1  0  0  0
  4  1  1  0  0  0
  6  2  1  0  0  0
  7  2  1  0  0  0
  8  2  1  0  0  0
  9  4  1  0  0  0
 10  4  1  0  0  0
 11  4  1  0  0  0
 12  7  1  0  0  0
 13  7  1  0  0  0
 14  7  1  0  0  0
M  END
